/*--------------------------------*- C++ -*----------------------------------*\
| =========                 |                                                 |
| \\      /  F ield         | OpenFOAM: The Open Source CFD Toolbox           |
|  \\    /   O peration     | Version:  v2006                                 |
|   \\  /    A nd           | Website:  www.openfoam.com                      |
|    \\/     M anipulation  |                                                 |
\*---------------------------------------------------------------------------*/
FoamFile
{
    version     2.0;
    format      ascii;
    class       dictionary;
    object      fvSchemes;
}
// * * * * * * * * * * * * * * * * * * * * * * * * * * * * * * * * * * * * * //
convectiveFluxScheme
{
        fluxScheme AUSMPlusUp;
}

viscousFluxScheme
{
        LaxFriedrichJacobian true;
}


ddtSchemes
{
    default         dualTime rPseudoDeltaT steadyState;
}

gradSchemes
{
    default         cellLimited Gauss linear 1.0;
}

divSchemes
{
    default         none;
    div(tauMC)          Gauss linear;   
 
    turbulence      Gauss upwind;
    
    div(phi,k)      $turbulence;
    div(phi,omega)  $turbulence;
    div(phi,nuTilda)  $turbulence;

}


laplacianSchemes
{
    default         Gauss linear corrected;
}

interpolationSchemes
{
    default         linear;

    reconstruct(rho) vanLeer;
    reconstruct(U)   vanLeer;
    reconstruct(T)   vanLeer;
}

snGradSchemes
{
    default         corrected;
}

wallDist
{
    method meshWave;
}

// ************************************************************************* //
