/*--------------------------------*- C++ -*----------------------------------*\
| =========                 |                                                 |
| \\      /  F ield         | OpenFOAM: The Open Source CFD Toolbox           |
|  \\    /   O peration     | Version:  v2012                                 |
|   \\  /    A nd           | Website:  www.openfoam.com                      |
|    \\/     M anipulation  |                                                 |
\*---------------------------------------------------------------------------*/
FoamFile
{
    version     2.0;
    format      ascii;
    class       volScalarField;
    object      nut;
}
// * * * * * * * * * * * * * * * * * * * * * * * * * * * * * * * * * * * * * //

dimensions      [0 2 -1 0 0 0 0];

internalField   uniform 7.3006e-05;

boundaryField
{
    my-velocity-inlet
    {
	type		fixedValue; //calculated;
	value 		uniform 7.3006e-05;
    }

    my-pressure-outlet
    {
	type            calculated;
        value           uniform 7.3006e-05;
    }

    my-wall
    {
        type            fixedValue;
	value		uniform 0.;
    }

    "(backPlanes|frontPlanes)"  //"(wedgeplanesFront|wedgeplanesBack)"
    {
        type            empty;
    }

    symm
    {
        type            symmetry;
    }

    freeSurf
    {
        type            calculated;
	value		uniform 7.3006e-05;
    }
}

// ************************************************************************* //
